.include "D:\shoun\OneDrive - Singapore University of Technology and Design\Felice Stuff\2. SUTD Stuff\SUTD Notes\2. Year 2\Intro to com struct\50002\50002\nominal.jsim"

.subckt nand2 a b z
MPD1 z a 1 0 NENH sw=8 sl=1
MPD2 1 b 0 0 NENH sw=8 sl=1
MPU1 z a vdd vdd PENH sw=8 sl=1
MPU2 s b vdd vdd PENH sw=8 sl=1
.ends

.subckt inv a z
MPD1 z a 0 0 NENH sw=16 sl=1
MPU1 z a vdd vdd PENH sw=16 sl=1
.ends

Xtest vin vin vout nand2
Vin vin 0 0v

Vol vol 0 0.3v
Voh voh 0 3v

.dc Vin 0 3.3 .005
.plot vin vout voh vol
