.include "/50002/nominal.jsim"
Vmeter vds drain 0v
Vds vds 0 0v
Vgs gate 0 0v
M1 drain gate 0 0 NENH W=1.2u L=600n
.dc Vds o 5 .1 Vgs 0 5 1
.plot I(Vmeter)