.include "./lab1checkoff.jsim"
.include ".\nominal.jsim"

.subckt F A B C Z
MPD1 3 A 1 0 NENH sw=8 sl=1
MPD2 1 B 0 0 NENH sw=8 sl=1
MPD3 3 C 0 0 NENH sw=8 sl=1

MPD4 Z 3 0 0 NENH sw=16 sl=1

MPU1 3 A 2 vdd PENH sw=10 sl=1
MPU2 3 B 2 vdd PENH sw=10 sl=1
MPU3 2 C vdd vdd PENH sw=10 sl=1

MPU4 Z 3 vdd vdd PENH sw=16 sl=1
.ends