.include "D:\shoun\Desktop\50002\50002\nand2.subckt"
Xtest vin vin vout nand2
Vin vin 0 0v

Vol vol 0 0.3v
Voh voh 0 3v

.dc Vin 0 3.3 .005
.plot vin vout voh vol
